3tj2
  PyMOL3.1          3D                             0

 82 11  0  0  0  0  0  0  0  0999 V2000
   12.8260    6.8970    1.6700 C   0  0  0  0  0  0  0  0  0  0  0  0
   13.1190    5.8610    2.5710 C   0  0  0  0  0  0  0  0  0  0  0  0
   11.1720    7.7770    3.2020 C   0  0  0  0  0  0  0  0  0  0  0  0
   11.8540    7.8510    1.9780 C   0  0  0  0  0  0  0  0  0  0  0  0
   11.5030    5.3850    5.7840 C   0  0  0  0  0  0  0  0  0  0  0  0
   10.9230    6.4530    5.2880 N   0  0  0  0  0  0  0  0  0  0  0  0
   12.4570    4.9100    4.9000 C   0  0  0  0  0  0  0  0  0  0  0  0
   11.4540    6.7390    4.1040 C   0  0  0  0  0  0  0  0  0  0  0  0
   12.4340    5.7800    3.7990 C   0  0  0  0  0  0  0  0  0  0  0  0
   11.4930    9.1430    0.8590 Cl  0  0  0  0  0  0  0  0  0  0  0  0
   17.2480   20.1480    4.7280 O   0  0  0  0  0  0  0  0  0  0  0  0
    9.8420    1.6970    4.8030 O   0  0  0  0  0  0  0  0  0  0  0  0
    3.7090   18.8550   -3.0390 O   0  0  0  0  0  0  0  0  0  0  0  0
   15.2390    5.5760  -12.5300 O   0  0  0  0  0  0  0  0  0  0  0  0
   21.7420   10.2170    6.5640 O   0  0  0  0  0  0  0  0  0  0  0  0
    5.4010    3.9800  -10.3900 O   0  0  0  0  0  0  0  0  0  0  0  0
   24.9480    7.7380    0.7680 O   0  0  0  0  0  0  0  0  0  0  0  0
   22.1820   13.9540    2.0760 O   0  0  0  0  0  0  0  0  0  0  0  0
   24.5030    6.2140   -0.9680 O   0  0  0  0  0  0  0  0  0  0  0  0
    9.7430    8.9200   10.8680 O   0  0  0  0  0  0  0  0  0  0  0  0
   20.8310   10.4070   -3.2770 O   0  0  0  0  0  0  0  0  0  0  0  0
   -2.0880   10.1430    8.9850 O   0  0  0  0  0  0  0  0  0  0  0  0
   10.9690   -3.1150   -3.9310 O   0  0  0  0  0  0  0  0  0  0  0  0
   -3.7160   13.4700    3.6370 O   0  0  0  0  0  0  0  0  0  0  0  0
    2.8780    8.7700  -13.7300 O   0  0  0  0  0  0  0  0  0  0  0  0
   13.9490   11.8780  -13.4690 O   0  0  0  0  0  0  0  0  0  0  0  0
    5.0650    1.0270   -9.3440 O   0  0  0  0  0  0  0  0  0  0  0  0
   12.0750   18.4200   -4.2690 O   0  0  0  0  0  0  0  0  0  0  0  0
   -7.1100   16.4390    3.5710 O   0  0  0  0  0  0  0  0  0  0  0  0
   16.8550   -3.1340  -10.9410 O   0  0  0  0  0  0  0  0  0  0  0  0
   21.9360    9.6190    8.5740 O   0  0  0  0  0  0  0  0  0  0  0  0
   20.5700   -1.2530   -8.0170 O   0  0  0  0  0  0  0  0  0  0  0  0
   10.5470   25.6010   -0.9830 O   0  0  0  0  0  0  0  0  0  0  0  0
   -4.0920   18.2120   -2.4420 O   0  0  0  0  0  0  0  0  0  0  0  0
   20.1710   18.8460    1.1830 O   0  0  0  0  0  0  0  0  0  0  0  0
   -4.9780   10.4900   -3.0860 O   0  0  0  0  0  0  0  0  0  0  0  0
   19.0500   10.5820   -0.4670 O   0  0  0  0  0  0  0  0  0  0  0  0
   -9.3790   15.8690   -4.3290 O   0  0  0  0  0  0  0  0  0  0  0  0
   10.6890   15.1230   19.1130 O   0  0  0  0  0  0  0  0  0  0  0  0
    8.7860   11.3270  -12.0520 O   0  0  0  0  0  0  0  0  0  0  0  0
   12.8830   -5.2770   -2.0020 O   0  0  0  0  0  0  0  0  0  0  0  0
   15.8210   -6.6170  -10.4140 O   0  0  0  0  0  0  0  0  0  0  0  0
   12.2840   14.4450  -13.2180 O   0  0  0  0  0  0  0  0  0  0  0  0
    8.8470    5.6070    9.8880 O   0  0  0  0  0  0  0  0  0  0  0  0
   -5.1640    9.2680    9.1210 O   0  0  0  0  0  0  0  0  0  0  0  0
   16.8160   17.7530   -9.7960 O   0  0  0  0  0  0  0  0  0  0  0  0
   12.0830   13.3990   18.1450 O   0  0  0  0  0  0  0  0  0  0  0  0
   12.2320   12.9040  -11.7510 O   0  0  0  0  0  0  0  0  0  0  0  0
   20.0480   -3.8060    2.3600 O   0  0  0  0  0  0  0  0  0  0  0  0
   -0.0180   24.9160   -2.5250 O   0  0  0  0  0  0  0  0  0  0  0  0
    7.7760   25.1080   13.2500 O   0  0  0  0  0  0  0  0  0  0  0  0
   18.2320   17.0180   -5.2130 O   0  0  0  0  0  0  0  0  0  0  0  0
   18.6250    4.7690    6.6930 O   0  0  0  0  0  0  0  0  0  0  0  0
   11.5720   19.5050   10.2580 O   0  0  0  0  0  0  0  0  0  0  0  0
   -8.8330   12.9420    3.7810 O   0  0  0  0  0  0  0  0  0  0  0  0
   23.2330   -0.7560   -8.0230 O   0  0  0  0  0  0  0  0  0  0  0  0
   15.7780   20.7780   15.4390 O   0  0  0  0  0  0  0  0  0  0  0  0
   15.5850   17.4520   -7.2080 O   0  0  0  0  0  0  0  0  0  0  0  0
   22.6300   12.9130    5.8250 O   0  0  0  0  0  0  0  0  0  0  0  0
    9.3640   24.7700   -2.6060 O   0  0  0  0  0  0  0  0  0  0  0  0
   17.7400   10.2990   10.6250 O   0  0  0  0  0  0  0  0  0  0  0  0
    7.3760   26.7260   15.1820 O   0  0  0  0  0  0  0  0  0  0  0  0
   17.9580    3.1940    8.2500 O   0  0  0  0  0  0  0  0  0  0  0  0
    9.6190   -1.6060  -10.0980 O   0  0  0  0  0  0  0  0  0  0  0  0
    0.9740   24.2440    2.3980 O   0  0  0  0  0  0  0  0  0  0  0  0
   -1.2190   23.7570    0.9360 O   0  0  0  0  0  0  0  0  0  0  0  0
    4.0780   11.2920    2.4100 O   0  0  0  0  0  0  0  0  0  0  0  0
   21.0540    7.1720   -7.2520 O   0  0  0  0  0  0  0  0  0  0  0  0
   15.9640   -4.6070  -12.3270 O   0  0  0  0  0  0  0  0  0  0  0  0
    7.6700   26.0100   -1.5120 O   0  0  0  0  0  0  0  0  0  0  0  0
   13.2800   -7.9720  -11.8650 O   0  0  0  0  0  0  0  0  0  0  0  0
   -8.7070   14.0570    7.5700 O   0  0  0  0  0  0  0  0  0  0  0  0
   -3.0900   23.6260   11.4690 O   0  0  0  0  0  0  0  0  0  0  0  0
   -7.1990   14.7580   -2.4690 O   0  0  0  0  0  0  0  0  0  0  0  0
    7.4820   -3.7750   -1.8730 O   0  0  0  0  0  0  0  0  0  0  0  0
   17.2550   18.1520   18.5120 O   0  0  0  0  0  0  0  0  0  0  0  0
   10.3440   -5.9100  -10.9260 O   0  0  0  0  0  0  0  0  0  0  0  0
   10.9270   -2.8150   -6.6890 O   0  0  0  0  0  0  0  0  0  0  0  0
   22.6200   17.0670    7.5640 O   0  0  0  0  0  0  0  0  0  0  0  0
   10.7400   10.8750  -14.1520 O   0  0  0  0  0  0  0  0  0  0  0  0
   12.1610   11.5080   10.4130 O   0  0  0  0  0  0  0  0  0  0  0  0
   21.7250   16.8330    9.6740 O   0  0  0  0  0  0  0  0  0  0  0  0
  1  2  1  0  0  0  0
  1  4  2  0  0  0  0
  3  4  1  0  0  0  0
  5  6  1  0  0  0  0
  5  7  2  0  0  0  0
  3  8  2  0  0  0  0
  6  8  1  0  0  0  0
  2  9  2  0  0  0  0
  7  9  1  0  0  0  0
  8  9  1  0  0  0  0
  4 10  1  0  0  0  0
M  END
$$$$
obj01
  PyMOL3.1          3D                             0

 10 11  0  0  0  0  0  0  0  0999 V2000
   12.8260    6.8970    1.6700 C   0  0  0  0  0  0  0  0  0  0  0  0
   13.1190    5.8610    2.5710 C   0  0  0  0  0  0  0  0  0  0  0  0
   11.1720    7.7770    3.2020 C   0  0  0  0  0  0  0  0  0  0  0  0
   11.8540    7.8510    1.9780 C   0  0  0  0  0  0  0  0  0  0  0  0
   11.5030    5.3850    5.7840 C   0  0  0  0  0  0  0  0  0  0  0  0
   10.9230    6.4530    5.2880 N   0  0  0  0  0  0  0  0  0  0  0  0
   12.4570    4.9100    4.9000 C   0  0  0  0  0  0  0  0  0  0  0  0
   11.4540    6.7390    4.1040 C   0  0  0  0  0  0  0  0  0  0  0  0
   12.4340    5.7800    3.7990 C   0  0  0  0  0  0  0  0  0  0  0  0
   11.4930    9.1430    0.8590 Cl  0  0  0  0  0  0  0  0  0  0  0  0
  1  2  1  0  0  0  0
  1  4  2  0  0  0  0
  3  4  1  0  0  0  0
  5  6  1  0  0  0  0
  5  7  2  0  0  0  0
  3  8  2  0  0  0  0
  6  8  1  0  0  0  0
  2  9  2  0  0  0  0
  7  9  1  0  0  0  0
  8  9  1  0  0  0  0
  4 10  1  0  0  0  0
M  END
$$$$
