3tj2 bioassembly 2
 OpenBabel04112511023D

 10 11  0  0  0  0  0  0  0  0999 V2000
   11.4930    9.1430    0.8590 Cl  0  0  0  0  0  0  0  0  0  0  0  0
   12.8260    6.8970    1.6700 C   0  0  0  0  0  0  0  0  0  0  0  0
   13.1190    5.8610    2.5710 C   0  0  0  0  0  0  0  0  0  0  0  0
   11.1720    7.7770    3.2020 C   0  0  0  0  0  0  0  0  0  0  0  0
   10.9230    6.4530    5.2880 N   0  0  0  0  0  0  0  0  0  0  0  0
   11.8540    7.8510    1.9780 C   0  0  0  0  0  0  0  0  0  0  0  0
   11.5030    5.3850    5.7840 C   0  0  0  0  0  0  0  0  0  0  0  0
   12.4570    4.9100    4.9000 C   0  0  0  0  0  0  0  0  0  0  0  0
   11.4540    6.7390    4.1040 C   0  0  0  0  0  0  0  0  0  0  0  0
   12.4340    5.7800    3.7990 C   0  0  0  0  0  0  0  0  0  0  0  0
  1  6  1  0  0  0  0
  2  6  2  0  0  0  0
  2  3  1  0  0  0  0
  3 10  1  0  0  0  0
  4  6  1  0  0  0  0
  4  9  2  0  0  0  0
  5  9  1  0  0  0  0
  5  7  2  0  0  0  0
  7  8  1  0  0  0  0
  8 10  2  0  0  0  0
  9 10  1  0  0  0  0
M  END
$$$$
